
     RDKit          3D

 17 15  0  0  0  0  0  0  0  0999 V2000
   -0.1842   -0.2961   -1.0792 O   0  0  0  0  0  0  0  0  0  0  0  0
   -0.5480   -0.7152   -2.2790 O   0  0  0  0  0  0  0  0  0  0  0  0
   -0.2879   -0.3061   -1.0368 H   0  0  0  0  0  0  0  0  0  0  0  0
   -0.2751   -1.6410   -2.4629 H   0  0  0  0  0  0  0  0  0  0  0  0
    0.7726    0.1266    1.1786 C   0  0  0  0  0  0  0  0  0  0  0  0
    0.6640    0.5730   -0.2643 C   0  0  0  0  0  0  0  0  0  0  0  0
   -0.5549    0.1276    1.8855 C   0  0  0  0  0  0  0  0  0  0  0  0
   -0.2722   -0.3004   -1.0603 C   0  0  0  0  0  3  0  0  0  0  0  0
    1.1737   -0.8999    1.1873 H   0  0  0  0  0  0  0  0  0  0  0  0
    1.4387    0.8641    1.6852 H   0  0  0  0  0  0  0  0  0  0  0  0
    0.3666    1.6306   -0.3232 H   0  0  0  0  0  0  0  0  0  0  0  0
    1.6989    0.5096   -0.6838 H   0  0  0  0  0  0  0  0  0  0  0  0
   -1.2550    0.8433    1.4014 H   0  0  0  0  0  0  0  0  0  0  0  0
   -0.4236    0.4934    2.9351 H   0  0  0  0  0  0  0  0  0  0  0  0
   -0.9971   -0.8939    1.9750 H   0  0  0  0  0  0  0  0  0  0  0  0
   -0.0188   -0.2408   -2.1417 H   0  0  0  0  0  0  0  0  0  0  0  0
   -1.2975    0.1249   -0.9169 H   0  0  0  0  0  0  0  0  0  0  0  0
  1  3  1  0
  1  2  1  0
  2  4  1  0
  5  6  1  0
  5  7  1  0
  5  9  1  0
  5 10  1  0
  6 11  1  0
  6 12  1  0
  6  8  1  0
  7 14  1  0
  7 15  1  0
  7 13  1  0
  8 16  1  0
  8 17  1  0
M  RAD  1   8   2
M  END
