
     RDKit          3D

 17 15  0  0  0  0  0  0  0  0999 V2000
    2.4352   -0.4945   -0.3015 O   0  0  0  0  0  0  0  0  0  0  0  0
    2.0190   -0.4870    0.9475 O   0  0  0  0  0  0  0  0  0  0  0  0
    1.5016   -0.2510   -0.9210 H   0  0  0  0  0  0  0  0  0  0  0  0
    2.2527    0.4150    1.2847 H   0  0  0  0  0  0  0  0  0  0  0  0
   -1.4759   -0.0340    0.1655 C   0  0  0  0  0  0  0  0  0  0  0  0
   -0.4828   -0.5023   -0.9048 C   0  0  0  0  0  0  0  0  0  0  0  0
   -0.7936    0.2495    1.5034 C   0  0  0  0  0  0  0  0  0  0  0  0
    0.4814    0.6086   -1.3050 C   0  0  0  0  0  3  0  0  0  0  0  0
   -2.2359   -0.8305    0.3184 H   0  0  0  0  0  0  0  0  0  0  0  0
   -2.0072    0.8789   -0.1819 H   0  0  0  0  0  0  0  0  0  0  0  0
   -1.0471   -0.8277   -1.8054 H   0  0  0  0  0  0  0  0  0  0  0  0
    0.0950   -1.3740   -0.5287 H   0  0  0  0  0  0  0  0  0  0  0  0
   -0.2684   -0.6583    1.8693 H   0  0  0  0  0  0  0  0  0  0  0  0
   -1.5576    0.5432    2.2537 H   0  0  0  0  0  0  0  0  0  0  0  0
   -0.0639    1.0802    1.4012 H   0  0  0  0  0  0  0  0  0  0  0  0
   -0.0720    1.4599   -1.7555 H   0  0  0  0  0  0  0  0  0  0  0  0
    1.2196    0.2239   -2.0397 H   0  0  0  0  0  0  0  0  0  0  0  0
  1  3  1  0
  1  2  1  0
  2  4  1  0
  5 10  1  0
  5  6  1  0
  5  9  1  0
  5  7  1  0
  6 11  1  0
  6  8  1  0
  6 12  1  0
  7 13  1  0
  7 14  1  0
  7 15  1  0
  8 16  1  0
  8 17  1  0
M  RAD  1   8   2
M  END
